/*--------------------------------*- C++ -*----------------------------------*\
| =========                 |                                                 |
| \\      /  F ield         | OpenFOAM: The Open Source CFD Toolbox           |
|  \\    /   O peration     | Version:  v2006                                 |
|   \\  /    A nd           | Web:      www.OpenFOAM.com                      |
|    \\/     M anipulation  |                                                 |
\*---------------------------------------------------------------------------*/
FoamFile
{
    version     2.0;
    format      ascii;
    class       volScalarField;
    location    "0";
    object      kt;
}
// * * * * * * * * * * * * * * * * * * * * * * * * * * * * * * * * * * * * * //

dimensions      [0 2 -2 0 0 0 0];

internalField   uniform 3.7500000000000006e-11;

boundaryField
{
    inlet
    {
        type            fixedValue;
        value           $internalField;
    }
    outlet
    {
        type            zeroGradient;
    }
    lowerAirfoil
    {
        type            fixedValue;
        value           uniform 3.7500000000000006e-11;
    }
    upperAirfoil
    {
        type            fixedValue;
        value           uniform 3.7500000000000006e-11;
    }
    trailingEdge
    {
        type            fixedValue;
        value           uniform 3.7500000000000006e-11;
    }
    BaseAndTop
    {
        type            empty;
    }
}