/*--------------------------------*- C++ -*----------------------------------*\
| =========                 |                                                 |
| \\      /  F ield         | OpenFOAM: The Open Source CFD Toolbox           |
|  \\    /   O peration     | Version:  v2006                                 |
|   \\  /    A nd           | Web:      www.OpenFOAM.com                      |
|    \\/     M anipulation  |                                                 |
\*---------------------------------------------------------------------------*/
FoamFile
{
    version     2.0;
    format      ascii;
    class       volScalarField;
    location    "0";
    object      omega;
}
// * * * * * * * * * * * * * * * * * * * * * * * * * * * * * * * * * * * * * //

#include        "../parameters"

dimensions      [0 0 -1 0 0 0 0];

internalField   uniform $omega;

boundaryField
{
    inlet
    {
        type            fixedValue;
        value           $internalField;
    }
    outlet
    {
        type            zeroGradient;
    }
    lowerAirfoil
    {
        type            omegaWallFunction;
        value           $internalField;
    }
    upperAirfoil
    {
        type            omegaWallFunction;
        value           $internalField;
    }
    trailingEdge
    {
        type            omegaWallFunction;
        value           $internalField;
    }
    BaseAndTop
    {
        type            empty;
    }
}