/*--------------------------------*- C++ -*----------------------------------*\
| =========                 |                                                 |
| \\      /  F ield         | OpenFOAM: The Open Source CFD Toolbox           |
|  \\    /   O peration     | Version:  v2006                                 |
|   \\  /    A nd           | Website:  www.openfoam.com                      |
|    \\/     M anipulation  |                                                 |
\*---------------------------------------------------------------------------*/
FoamFile
{
    version     2.0;
    format      ascii;
    class       volVectorField;
    location    "0";
    object      U;
}
// * * * * * * * * * * * * * * * * * * * * * * * * * * * * * * * * * * * * * //

#include        "../parameters"

dimensions      [0 1 -1 0 0 0 0];

internalField   uniform ($Ux $Uy 0);

boundaryField
{
    inlet
    {
        type            freestreamVelocity;
        freestreamValue $internalField;
    }
    outlet
    {
        type            freestreamVelocity;
        freestreamValue $internalField;
    }
    lowerAirfoil
    {
        type            noSlip;
    }
    trailingEdge
    {
        type            noSlip;
    }
    upperAirfoil
    {
        type            noSlip;
    }
    BaseAndTop
    {
        type            empty;
    }
}


// ************************************************************************* //